 36

 S                 -0.73725052    0.25498891    0.00000000
 S                 -4.78685034   -6.99370877    3.13405337
 C                 -4.26478784   -5.98806257    2.18110836
 C                 -3.50802519   -4.79145957    2.81341750
 S                 -4.47263617   -6.80256330    5.75334023
 C                 -4.27434478   -6.28794302    4.36876823
 C                 -3.55804206   -5.06068806    4.23762768
 S                 -3.56551729   -5.54721589    7.89093323
 C                 -3.75638292   -5.67879148    6.41930775
 C                 -3.22032463   -4.66677874    5.59986017
 S                 -2.27746556   -3.51093733    8.97013290
 C                 -2.81315279   -4.26456770    7.80260199
 C                 -2.59204865   -3.72460298    6.52001493
 S                 -0.95576971   -1.24265121    8.69952297
 C                 -1.69156872   -2.41450676    8.14931971
 C                 -1.84464887   -2.49164981    6.75024576
 S                  0.04484844    0.64835754    7.15561517
 C                 -0.69354380   -0.62696018    7.36895165
 C                 -1.17926824   -1.29983878    6.22944570
 S                  0.45733406    1.65698586    4.75317987
 S                 -3.34758036   -4.05197966   -0.79845016
 C                 -2.61107354   -2.87861894   -0.25056730
 C                 -2.45565798   -2.79721300    1.14665930
 S                 -2.02613573   -1.78351650   -1.07398811
 C                 -0.08621532    0.61929724    5.67255407
 C                 -0.77419538   -0.46859497    5.09769555
 S                  0.17147046    1.51364890    2.13429919
 C                 -0.03169719    0.99138141    3.51423289
 C                 -0.73773674   -0.22023949    3.65793898
 S                 -4.36962236   -5.97367634    0.70436200
 C                 -3.61489752   -4.67570156    0.52846610
 C                 -3.11774666   -3.98421043    1.67350895
 C                 -1.70870678   -1.56482958    1.37558179
 C                 -1.48912646   -1.02732181    0.09170160
 C                 -1.07973198   -0.62137430    2.29540189
 C                 -0.54490334    0.38921387    1.47110693

