 24

 C                 -1.91714700    0.19525900    0.00000000
 C                 -1.21689500    1.49555900    0.00000000
 C                  0.19773400    1.91983400    0.00000000
 C                  1.49803500    1.21958100    0.00000000
 C                  1.92231000   -0.19504700    0.00000000
 C                  1.22205800   -1.49534800    0.00000000
 C                 -0.19257100   -1.91962300    0.00000000
 C                 -1.49287100   -1.21937000    0.00000000
 N                 -2.47626300   -2.02119200    0.00000000
 N                 -3.17951200    0.32350600    0.00000000
 N                 -2.01871600    2.47895100    0.00000000
 N                  0.32598200    3.18219900    0.00000000
 N                  2.48142600    2.02140300    0.00000000
 N                  3.18467500   -0.32329500    0.00000000
 N                 -0.32081900   -3.18198700    0.00000000
 N                  2.02387900   -2.47874000    0.00000000
 F                 -4.16504600    2.24443900    1.15786100
 F                 -4.16504600    2.24443900   -1.15786100
 F                  2.24691500    4.16773300    1.15786100
 F                  4.17020900   -2.24422700    1.15786100
 F                  2.24691500    4.16773300   -1.15786100
 F                  4.17020900   -2.24422700   -1.15786100
 F                 -2.24175200   -4.16752100    1.15786100
 F                 -2.24175200   -4.16752100   -1.15786100
 B                 -3.88370500   -1.16552200    0.00000000
 B                 -1.16304300    3.88639300    0.00000000
 B                  3.88886800    1.16573300    0.00000000
 B                  1.16820600   -3.88618200    0.00000000
 B                 -1.92114700   -3.57211700    0.00000000
 B                  3.57480500   -1.92362300    0.00000000
 B                  1.92631000    3.57232800    0.00000000
 B                 -3.56964100    1.92383400    0.00000000
 F                 -4.53143600   -1.35982600    1.15786500
 F                 -4.53143600   -1.35982600   -1.15786500
 F                 -1.35734800    4.53412400    1.15786500
 F                  4.53659900    1.36003800    1.15786500
 F                  4.53659900    1.36003800   -1.15786500
 F                  1.36251100   -4.53391300    1.15786500
 F                  1.36251100   -4.53391300   -1.15786500
 F                 -1.35734800    4.53412400   -1.15786500

