 24

 C                 -1.82040100    0.16542200   -0.00000100
 C                 -1.13863300    1.43138900   -0.00000200
 C                  0.16789300    1.82307900   -0.00000200
 C                  1.43386300    1.14131500   -0.00000100
 C                  1.82556500   -0.16521200   -0.00000200
 C                  1.14379700   -1.43117900   -0.00000200
 C                 -0.16273000   -1.82287000   -0.00000200
 C                 -1.42869900   -1.14110500   -0.00000100
 N                 -2.56601600   -1.87264200    0.00000000
 N                 -3.17252300    0.15044900    0.00000000
 N                 -1.87016200    2.56871000   -0.00000100
 N                  0.15290400    3.17519500   -0.00000100
 N                  2.57117800    1.87285500    0.00000000
 N                  3.17768700   -0.15023700    0.00000000
 N                 -0.14774500   -3.17498700   -0.00000100
 N                  1.87533000   -2.56849900   -0.00000100
 N                 -3.61968500   -1.08625300    0.00000000
 N                 -1.08379700    3.62234300   -0.00000100
 N                  3.62484900    1.08646800    0.00000000
 N                  1.08896200   -3.62214000   -0.00000100
 F                 -4.57358000    2.46413900    1.53201000
 F                 -4.57358300    2.46414000   -1.53200600
 F                  2.46658100    4.57627300    1.53201000
 F                  4.57874700   -2.46392400    1.53201000
 F                  2.46658300    4.57627600   -1.53200600
 F                  4.57875000   -2.46392500   -1.53200600
 F                 -2.46142500   -4.57606000    1.53201000
 F                 -2.46142700   -4.57606200   -1.53200600
 Ga                -2.07479700   -3.85708300    0.00000100
 Ga                -3.85460500    2.07750500    0.00000100
 Ga                 2.07995400    3.85729500    0.00000100
 Ga                 3.85977200   -2.07729200    0.00000100

