 24

 C                 -1.83002400    0.21509300   -0.50311100
 C                 -1.18542100    1.41122700   -0.50116200
 C                  0.21756800    1.83271200   -0.50311200
 C                  1.41370200    1.18810900   -0.50116200
 C                  1.83518700   -0.21488100   -0.50311200
 C                  1.19058400   -1.41101500   -0.50116200
 C                 -0.21240500   -1.83250000   -0.50311200
 C                 -1.40853900   -1.18789700   -0.50116200
 N                 -2.49996200   -2.00286400   -0.11975000
 N                 -3.19041300    0.29458100   -0.12291700
 N                 -2.00038800    2.50264900   -0.11975000
 N                  0.29705600    3.19310000   -0.12291700
 N                  2.50512500    2.00307500   -0.11975000
 N                  3.19557600   -0.29436900   -0.12291700
 N                 -0.29189300   -3.19288900   -0.12291700
 N                  2.00555100   -2.50243800   -0.11975000
 S                 -3.60910100    1.94486100   -0.07333300
 S                 -1.94217400   -3.61157700   -0.07333400
 S                  3.61426400   -1.94464900   -0.07333400
 S                  1.94733700    3.61178800   -0.07333400
 Se                -3.40013800   -1.01984400    1.32027400
 Se                -1.01736700    3.40282500    1.32027500
 Se                 3.40530100    1.02005500    1.32027400
 Se                 1.02253000   -3.40261300    1.32027500

